Version 4
SHEET 1 2444 1072
WIRE 416 -800 416 -816
WIRE 416 -736 416 -800
WIRE 416 -592 416 -656
WIRE 2384 -576 2304 -576
WIRE 2384 -544 2304 -544
WIRE 2176 -528 2096 -528
WIRE 2384 -512 2304 -512
WIRE 2432 -512 2384 -512
WIRE 2384 -480 2384 -512
WIRE 176 -432 96 -432
WIRE -1200 -416 -1280 -416
WIRE -1072 -416 -1200 -416
WIRE -912 -416 -1072 -416
WIRE -752 -416 -832 -416
WIRE -736 -416 -752 -416
WIRE -656 -416 -688 -416
WIRE -608 -416 -656 -416
WIRE -400 -416 -544 -416
WIRE -32 -416 -400 -416
WIRE 2096 -416 2096 -528
WIRE 2208 -416 2096 -416
WIRE 2384 -416 2384 -480
WIRE 2384 -416 2288 -416
WIRE 176 -400 96 -400
WIRE -32 -384 -112 -384
WIRE 2096 -384 2096 -416
WIRE -1072 -368 -1072 -416
WIRE 176 -368 96 -368
WIRE 992 -368 176 -368
WIRE -400 -352 -400 -416
WIRE -656 -336 -656 -416
WIRE 176 -336 176 -368
WIRE 1408 -336 1232 -336
WIRE 992 -320 992 -368
WIRE 1104 -320 992 -320
WIRE 1408 -304 1232 -304
WIRE -1280 -288 -1280 -416
WIRE 1104 -288 1040 -288
WIRE -112 -272 -112 -384
WIRE 0 -272 -112 -272
WIRE 176 -272 176 -336
WIRE 176 -272 80 -272
WIRE 1376 -272 1232 -272
WIRE 2096 -272 2096 -304
WIRE -400 -240 -400 -288
WIRE -112 -240 -112 -272
WIRE -1072 -176 -1072 -288
WIRE -112 -128 -112 -160
WIRE 1040 -96 1040 -288
WIRE -1280 32 -1280 -208
FLAG -1280 32 0
FLAG -400 -240 0
FLAG -656 -272 0
FLAG -1200 -416 VIN
FLAG -400 -416 VOUT1
FLAG -1072 -176 0
FLAG 176 -400 0
FLAG 176 -432 3V3
FLAG -112 -128 0
FLAG 176 -336 V_AMP
FLAG 2384 -544 0
FLAG 2384 -576 3V3
FLAG 2096 -272 0
FLAG 2384 -480 V_AMP_2
FLAG 1408 -336 3V3
FLAG 1408 -304 0
FLAG 1376 -272 V_OUT
FLAG 416 -800 3V3
FLAG 416 -592 0
FLAG 1040 -96 0
SYMBOL voltage -1280 -304 R0
WINDOW 3 -359 109 Left 2
SYMATTR Value SINE(0 {X} 2480e6)
SYMATTR InstName V1
SYMATTR Value2 AC 1m 0
SYMATTR SpiceLine Rser=50
SYMBOL schottky -608 -400 R270
WINDOW 0 32 32 VTop 2
WINDOW 3 0 32 VBottom 2
SYMATTR InstName D1
SYMATTR Value SMS7630
SYMBOL Cap -416 -352 R0
SYMATTR InstName C2
SYMATTR Value 1n
SYMBOL Cap -688 -432 R90
WINDOW 0 0 32 VBottom 2
WINDOW 3 32 32 VTop 2
SYMATTR InstName C3
SYMATTR Value 47p
SYMBOL diode -640 -272 R180
WINDOW 0 24 64 Left 2
WINDOW 3 24 0 Left 2
SYMATTR InstName D2
SYMATTR Value SMS7630
SYMATTR Description Schottky diode
SYMATTR Type schottky
SYMBOL ind -1056 -272 R180
WINDOW 0 36 80 Left 2
WINDOW 3 36 40 Left 2
SYMATTR InstName L1
SYMATTR Value 3.8n
SYMBOL ind -928 -400 R270
WINDOW 0 32 56 VTop 2
WINDOW 3 5 56 VBottom 2
SYMATTR InstName L2
SYMATTR Value 13n
SYMBOL AutoGenerated/TSZ121 32 -400 R0
SYMATTR InstName U1
SYMBOL Res -128 -256 R0
SYMATTR InstName R1
SYMATTR Value 1K
SYMBOL Res 96 -288 R90
WINDOW 0 0 56 VBottom 2
WINDOW 3 32 56 VTop 2
SYMATTR InstName R4
SYMATTR Value 400K
SYMBOL AutoGenerated/TSZ121 2240 -544 R0
SYMATTR InstName U3
SYMBOL Res 2080 -400 R0
SYMATTR InstName R5
SYMATTR Value 1K
SYMBOL Res 2304 -432 R90
WINDOW 0 0 56 VBottom 2
WINDOW 3 32 56 VTop 2
SYMATTR InstName R6
SYMATTR Value 402K
SYMBOL AutoGenerated/TS881 1168 -304 R0
SYMATTR InstName U4
SYMBOL voltage 416 -752 R0
SYMATTR InstName V2
SYMATTR Value 3.3
TEXT -1640 -328 Left 2 !.tran 1u 20u
TEXT -1736 -536 Left 2 !.MODEL SMS7630 D(IS=5e-6 RS=20 N=1.05 TT=1e-11 CJO=0.14p M=0.40 EG=0.69 XTI=2 FC=0.5 BV=2 IBV=1e-4 VJ=0.34)
TEXT -1616 -112 Left 2 ;.ac lin 100 2400e6 2500e6
TEXT -1712 -600 Left 2 !.MODEL HSMS285 D(BV=3.8 CJO=0.18p EG=0.69 IBV=3e-4 IS=3e-6 N=1.06 RS=25 VJ=0.35 XTI=2 M=0.5)
TEXT -1648 -272 Left 2 !.step param X list 0.5m 1m 2m
